408
H234 C116 O58
C 0.000000 0.000000 0.000000
H -0.356660 1.008810 0.000000
H -0.372119 -0.517286 -0.901654
H -0.372119 -0.517286 0.901654
O 1.507500 0.000000 0.000000
C 1.944850 -1.342030 0.000000
H 1.572730 -1.859320 -0.901654
H 1.572730 -1.859320 0.901654
C 3.452350 -1.342030 0.000000
H 3.439865 -1.979134 -0.901654
H 3.439865 -1.979134 0.901654
O 4.693118 -0.485847 0.000000
C 5.815290 -1.342030 0.000000
H 5.802806 -1.979138 -0.901654
H 5.802806 -1.979138 0.901654
C 5.815290 -1.342030 1.507500
H 6.195566 -2.378501 1.495015
H 4.711329 -1.354313 1.495015
O 6.301559 -0.637337 2.748268
C 5.815290 -1.342030 3.870440
H 6.195564 -2.378504 3.857956
H 4.711327 -1.354317 3.857956
C 5.815290 -2.849530 3.870440
H 5.178186 -2.837045 2.968786
H 5.178186 -2.837045 4.772094
O 6.671474 -4.090298 3.870440
C 5.815290 -5.212470 3.870440
H 5.178182 -5.199986 2.968786
H 5.178182 -5.199986 4.772094
C 5.815290 -5.212470 5.377940
H 6.195566 -6.248941 5.365455
H 4.711329 -5.224754 5.365455
O 6.301559 -4.507777 6.618708
C 5.815290 -5.212470 7.740880
H 6.195564 -6.248944 7.728396
H 4.711327 -5.224757 7.728396
C 5.815290 -6.719970 7.740880
H 5.178186 -6.707485 6.839226
H 5.178186 -6.707485 8.642534
O 6.671474 -7.960738 7.740880
C 5.815290 -9.082910 7.740880
H 5.178182 -9.070426 6.839226
H 5.178182 -9.070426 8.642534
C 4.307790 -9.082910 7.740880
H 4.320276 -8.445806 6.839226
H 4.320276 -8.445806 8.642534
O 3.067022 -9.939094 7.740880
C 1.944850 -9.082910 7.740880
H 1.957334 -8.445802 6.839226
H 1.957334 -8.445802 8.642534
C 1.944850 -10.590410 7.740880
H 1.307746 -10.577925 6.839226
H 1.307746 -10.577925 8.642534
O 2.801033 -11.831179 7.740880
C 1.944850 -12.953350 7.740880
H 1.307742 -12.940866 6.839226
H 1.307742 -12.940866 8.642534
C 1.944850 -12.953350 6.233380
H 0.840889 -12.965634 6.245866
H 2.325126 -13.989821 6.245866
O 2.431119 -12.248657 4.992612
C 1.944850 -12.953350 3.870440
H 0.840887 -12.965637 3.882924
H 2.325124 -13.989824 3.882924
C 3.452350 -12.953350 3.870440
H 3.439865 -13.590454 2.968786
H 3.439865 -13.590454 4.772094
O 4.693118 -12.097167 3.870440
C 5.815290 -12.953350 3.870440
H 5.802806 -13.590458 2.968786
H 5.802806 -13.590458 4.772094
C 5.815290 -14.460850 3.870440
H 5.178186 -14.448365 2.968786
H 5.178186 -14.448365 4.772094
O 6.671474 -15.701619 3.870440
C 5.815290 -16.823791 3.870440
H 5.178182 -16.811307 2.968786
H 5.178182 -16.811307 4.772094
C 5.815290 -18.331291 3.870440
H 5.178186 -18.318805 2.968786
H 5.178186 -18.318805 4.772094
O 6.671474 -19.572059 3.870440
C 5.815290 -20.694231 3.870440
H 5.178182 -20.681747 2.968786
H 5.178182 -20.681747 4.772094
C 4.307790 -20.694231 3.870440
H 4.320276 -20.057127 2.968786
H 4.320276 -20.057127 4.772094
O 3.067022 -21.550414 3.870440
C 1.944850 -20.694231 3.870440
H 1.957334 -20.057123 2.968786
H 1.957334 -20.057123 4.772094
C 1.944850 -20.694231 2.362940
H 0.840889 -20.706514 2.375426
H 2.325126 -21.730701 2.375426
O 2.431119 -19.989537 1.122172
C 1.944850 -20.694231 0.000000
H 0.840887 -20.706517 0.012484
H 2.325124 -21.730705 0.012484
C 1.944850 -20.694231 -1.507500
H 0.840889 -20.706514 -1.495015
H 2.325126 -21.730701 -1.495015
O 2.431119 -19.989537 -2.748268
C 1.944850 -20.694231 -3.870440
H 0.840887 -20.706517 -3.857956
H 2.325124 -21.730705 -3.857956
C 3.452350 -20.694231 -3.870440
H 3.439865 -21.331335 -4.772094
H 3.439865 -21.331335 -2.968786
O 4.693118 -19.838047 -3.870440
C 5.815290 -20.694231 -3.870440
H 5.802806 -21.331338 -4.772094
H 5.802806 -21.331338 -2.968786
C 5.815290 -20.694231 -2.362940
H 6.195566 -21.730701 -2.375426
H 4.711329 -20.706514 -2.375426
O 6.301559 -19.989537 -1.122172
C 5.815290 -20.694231 0.000000
H 6.195564 -21.730705 -0.012484
H 4.711327 -20.706517 -0.012484
C 5.815290 -22.201731 0.000000
H 5.178186 -22.189245 -0.901654
H 5.178186 -22.189245 0.901654
O 6.671474 -23.442499 0.000000
C 5.815290 -24.564671 0.000000
H 5.178182 -24.552187 -0.901654
H 5.178182 -24.552187 0.901654
C 5.815290 -24.564671 1.507500
H 6.195566 -25.601142 1.495015
H 4.711329 -24.576954 1.495015
O 6.301559 -23.859977 2.748268
C 5.815290 -24.564671 3.870440
H 6.195564 -25.601145 3.857956
H 4.711327 -24.576957 3.857956
C 5.815290 -26.072171 3.870440
H 5.178186 -26.059685 2.968786
H 5.178186 -26.059685 4.772094
O 6.671474 -27.312939 3.870440
C 5.815290 -28.435111 3.870440
H 5.178182 -28.422627 2.968786
H 5.178182 -28.422627 4.772094
C 7.322790 -28.435111 3.870440
H 7.310305 -29.072215 2.968786
H 7.310305 -29.072215 4.772094
O 8.563558 -27.578927 3.870440
C 9.685730 -28.435111 3.870440
H 9.673246 -29.072219 2.968786
H 9.673246 -29.072219 4.772094
C 9.685730 -26.927611 3.870440
H 10.322834 -26.940096 2.968786
H 10.322834 -26.940096 4.772094
O 8.829547 -25.686843 3.870440
C 9.685730 -24.564671 3.870440
H 10.322838 -24.577155 2.968786
H 10.322838 -24.577155 4.772094
C 9.685730 -23.057171 3.870440
H 10.322834 -23.069656 2.968786
H 10.322834 -23.069656 4.772094
O 8.829547 -21.816402 3.870440
C 9.685730 -20.694231 3.870440
H 10.322838 -20.706715 2.968786
H 10.322838 -20.706715 4.772094
C 11.193230 -20.694231 3.870440
H 11.180745 -21.331335 2.968786
H 11.180745 -21.331335 4.772094
O 12.433999 -19.838047 3.870440
C 13.556170 -20.694231 3.870440
H 13.543686 -21.331338 2.968786
H 13.543686 -21.331338 4.772094
C 13.556170 -20.694231 2.362940
H 12.452209 -20.706514 2.375426
H 13.936446 -21.730701 2.375426
O 14.042439 -19.989537 1.122172
C 13.556170 -20.694231 -0.000000
H 12.452207 -20.706517 0.012484
H 13.936444 -21.730705 0.012484
C 13.556170 -20.694231 -1.507500
H 12.452209 -20.706514 -1.495015
H 13.936446 -21.730701 -1.495015
O 14.042439 -19.989537 -2.748268
C 13.556170 -20.694231 -3.870440
H 12.452207 -20.706517 -3.857956
H 13.936444 -21.730705 -3.857956
C 13.556170 -20.694231 -5.377940
H 12.452209 -20.706514 -5.365455
H 13.936446 -21.730701 -5.365455
O 14.042439 -19.989537 -6.618708
C 13.556170 -20.694231 -7.740880
H 12.452207 -20.706517 -7.728396
H 13.936444 -21.730705 -7.728396
C 13.556170 -22.201731 -7.740880
H 12.919066 -22.189245 -8.642534
H 12.919066 -22.189245 -6.839226
O 14.412354 -23.442499 -7.740880
C 13.556170 -24.564671 -7.740880
H 12.919063 -24.552187 -8.642534
H 12.919063 -24.552187 -6.839226
C 15.063670 -24.564671 -7.740880
H 15.051185 -25.201775 -8.642534
H 15.051185 -25.201775 -6.839226
O 16.304439 -23.708487 -7.740880
C 17.426611 -24.564671 -7.740880
H 17.414127 -25.201779 -8.642534
H 17.414127 -25.201779 -6.839226
C 17.426611 -23.057171 -7.740880
H 18.063714 -23.069656 -8.642534
H 18.063714 -23.069656 -6.839226
O 16.570427 -21.816402 -7.740880
C 17.426611 -20.694231 -7.740880
H 18.063718 -20.706715 -8.642534
H 18.063718 -20.706715 -6.839226
C 17.426611 -20.694231 -9.248380
H 16.322649 -20.706514 -9.235895
H 17.806886 -21.730701 -9.235895
O 17.912879 -19.989537 -10.489149
C 17.426611 -20.694231 -11.611320
H 16.322647 -20.706517 -11.598836
H 17.806884 -21.730705 -11.598836
C 17.426611 -22.201731 -11.611320
H 16.789507 -22.189245 -12.512974
H 16.789507 -22.189245 -10.709666
O 18.282794 -23.442499 -11.611320
C 17.426611 -24.564671 -11.611320
H 16.789503 -24.552187 -12.512974
H 16.789503 -24.552187 -10.709666
C 18.934111 -24.564671 -11.611320
H 18.921625 -25.201775 -12.512974
H 18.921625 -25.201775 -10.709666
O 20.174879 -23.708487 -11.611320
C 21.297051 -24.564671 -11.611320
H 21.284567 -25.201779 -12.512974
H 21.284567 -25.201779 -10.709666
C 21.297051 -24.564671 -13.118820
H 20.193089 -24.576954 -13.106335
H 21.677327 -25.601142 -13.106335
O 21.783319 -23.859977 -14.359589
C 21.297051 -24.564671 -15.481761
H 20.193087 -24.576957 -15.469277
H 21.677324 -25.601145 -15.469277
C 21.297051 -23.057171 -15.481761
H 21.934155 -23.069656 -16.383415
H 21.934155 -23.069656 -14.580107
O 20.440867 -21.816402 -15.481761
C 21.297051 -20.694231 -15.481761
H 21.934158 -20.706715 -16.383415
H 21.934158 -20.706715 -14.580107
C 22.804551 -20.694231 -15.481761
H 22.792065 -21.331335 -16.383415
H 22.792065 -21.331335 -14.580107
O 24.045319 -19.838047 -15.481761
C 25.167491 -20.694231 -15.481761
H 25.155007 -21.331338 -16.383415
H 25.155007 -21.331338 -14.580107
C 25.167491 -20.694231 -13.974261
H 25.547767 -21.730701 -13.986746
H 24.063529 -20.706514 -13.986746
O 25.653759 -19.989537 -12.733492
C 25.167491 -20.694231 -11.611320
H 25.547764 -21.730705 -11.623804
H 24.063527 -20.706517 -11.623804
C 25.167491 -22.201731 -11.611320
H 24.530387 -22.189245 -12.512974
H 24.530387 -22.189245 -10.709666
O 26.023674 -23.442499 -11.611320
C 25.167491 -24.564671 -11.611320
H 24.530383 -24.552187 -12.512974
H 24.530383 -24.552187 -10.709666
C 25.167491 -24.564671 -13.118820
H 24.063529 -24.576954 -13.106335
H 25.547767 -25.601142 -13.106335
O 25.653759 -23.859977 -14.359589
C 25.167491 -24.564671 -15.481761
H 24.063527 -24.576957 -15.469277
H 25.547764 -25.601145 -15.469277
C 26.674991 -24.564671 -15.481761
H 26.662505 -25.201775 -16.383415
H 26.662505 -25.201775 -14.580107
O 27.915759 -23.708487 -15.481761
C 29.037931 -24.564671 -15.481761
H 29.025447 -25.201779 -16.383415
H 29.025447 -25.201779 -14.580107
C 29.037931 -24.564671 -13.974261
H 29.418207 -25.601142 -13.986746
H 27.933970 -24.576954 -13.986746
O 29.524200 -23.859977 -12.733492
C 29.037931 -24.564671 -11.611320
H 29.418205 -25.601145 -11.623804
H 27.933967 -24.576957 -11.623804
C 30.545431 -24.564671 -11.611320
H 30.532945 -25.201775 -12.512974
H 30.532945 -25.201775 -10.709666
O 31.786199 -23.708487 -11.611320
C 32.908371 -24.564671 -11.611320
H 32.895887 -25.201779 -12.512974
H 32.895887 -25.201779 -10.709666
C 32.908371 -24.564671 -10.103820
H 33.288647 -25.601142 -10.116306
H 31.804410 -24.576954 -10.116306
O 33.394640 -23.859977 -8.863052
C 32.908371 -24.564671 -7.740880
H 33.288645 -25.601145 -7.753364
H 31.804408 -24.576957 -7.753364
C 32.908371 -26.072171 -7.740880
H 32.271267 -26.059685 -8.642534
H 32.271267 -26.059685 -6.839226
O 33.764554 -27.312939 -7.740880
C 32.908371 -28.435111 -7.740880
H 32.271263 -28.422627 -8.642534
H 32.271263 -28.422627 -6.839226
C 32.908371 -28.435111 -6.233380
H 33.288647 -29.471582 -6.245866
H 31.804410 -28.447394 -6.245866
O 33.394640 -27.730417 -4.992612
C 32.908371 -28.435111 -3.870440
H 33.288645 -29.471585 -3.882924
H 31.804408 -28.447397 -3.882924
C 32.908371 -26.927611 -3.870440
H 33.545475 -26.940096 -4.772094
H 33.545475 -26.940096 -2.968786
O 32.052188 -25.686843 -3.870440
C 32.908371 -24.564671 -3.870440
H 33.545479 -24.577155 -4.772094
H 33.545479 -24.577155 -2.968786
C 32.908371 -24.564671 -2.362940
H 33.288647 -25.601142 -2.375426
H 31.804410 -24.576954 -2.375426
O 33.394640 -23.859977 -1.122172
C 32.908371 -24.564671 0.000000
H 33.288645 -25.601145 -0.012484
H 31.804408 -24.576957 -0.012484
C 32.908371 -24.564671 1.507500
H 33.288647 -25.601142 1.495015
H 31.804410 -24.576954 1.495015
O 33.394640 -23.859977 2.748268
C 32.908371 -24.564671 3.870440
H 33.288645 -25.601145 3.857956
H 31.804408 -24.576957 3.857956
C 32.908371 -26.072171 3.870440
H 32.271267 -26.059685 2.968786
H 32.271267 -26.059685 4.772094
O 33.764554 -27.312939 3.870440
C 32.908371 -28.435111 3.870440
H 32.271263 -28.422627 2.968786
H 32.271263 -28.422627 4.772094
C 31.400871 -28.435111 3.870440
H 31.413356 -27.798007 2.968786
H 31.413356 -27.798007 4.772094
O 30.160103 -29.291294 3.870440
C 29.037931 -28.435111 3.870440
H 29.050415 -27.798003 2.968786
H 29.050415 -27.798003 4.772094
C 27.530431 -28.435111 3.870440
H 27.542916 -27.798007 2.968786
H 27.542916 -27.798007 4.772094
O 26.289663 -29.291294 3.870440
C 25.167491 -28.435111 3.870440
H 25.179975 -27.798003 2.968786
H 25.179975 -27.798003 4.772094
C 25.167491 -26.927611 3.870440
H 25.804595 -26.940096 2.968786
H 25.804595 -26.940096 4.772094
O 24.311307 -25.686843 3.870440
C 25.167491 -24.564671 3.870440
H 25.804599 -24.577155 2.968786
H 25.804599 -24.577155 4.772094
C 23.659991 -24.564671 3.870440
H 23.672476 -23.927567 2.968786
H 23.672476 -23.927567 4.772094
O 22.419222 -25.420854 3.870440
C 21.297051 -24.564671 3.870440
H 21.309535 -23.927563 2.968786
H 21.309535 -23.927563 4.772094
C 21.297051 -24.564671 5.377940
H 21.677327 -25.601142 5.365455
H 20.193089 -24.576954 5.365455
O 21.783319 -23.859977 6.618708
C 21.297051 -24.564671 7.740880
H 21.677324 -25.601145 7.728396
H 20.193087 -24.576957 7.728396
C 21.297051 -26.072171 7.740880
H 20.659947 -26.059685 6.839226
H 20.659947 -26.059685 8.642534
O 22.153234 -27.312939 7.740880
C 21.297051 -28.435111 7.740880
H 20.659943 -28.422627 6.839226
H 20.659943 -28.422627 8.642534
C 22.804551 -28.435111 7.740880
H 22.792065 -29.072215 6.839226
H 22.792065 -29.072215 8.642534
O 24.045319 -27.578927 7.740880
C 25.167491 -28.435111 7.740880
H 25.155007 -29.072219 6.839226
H 25.155007 -29.072219 8.642534
C 25.167491 -29.942611 7.740880
H 24.530387 -29.930125 6.839226
H 24.530387 -29.930125 8.642534
O 26.023674 -31.183379 7.740880
C 25.167491 -32.305551 7.740880
H 24.530383 -32.293067 6.839226
H 24.530383 -32.293067 8.642534
C 26.674991 -32.305551 7.740880
H 26.662505 -32.942655 6.839226
H 26.662505 -32.942655 8.642534
O 27.915759 -31.449368 7.740880
C 29.037931 -32.305551 7.740880
H 29.025447 -32.942659 6.839226
H 29.025447 -32.942659 8.642534
H 29.720603 -31.437802 7.740880