         408
  Built with Packmol                                             
  C            0.406247       29.531062       19.004560
  H            0.023090       30.499317       18.758436
  H            0.062656       28.801513       18.250412
  H            0.033305       29.234794       20.000640
  O            1.913020       29.575645       19.018791
  C            2.385636       28.286468       19.345862
  H            2.042046       27.556919       18.591714
  H            2.012695       27.990200       20.341942
  C            3.892410       28.331051       19.360093
  H            3.911443       27.495891       18.638172
  H            3.882092       27.929173       20.388399
  O            5.109948       29.198459       19.165778
  C            6.254211       28.400933       19.382401
  H            6.273255       27.565764       18.660481
  H            6.243904       27.999045       20.410709
  C            6.229674       28.763142       20.845534
  H            6.637374       27.765747       21.086414
  H            5.126774       28.715578       20.825945
  O            6.676886       29.759374       21.884803
  C            6.191215       29.330889       23.138931
  H            6.598904       28.333496       23.379821
  H            5.088315       29.283317       23.119354
  C            6.231066       27.868229       23.501691
  H            5.608618       27.644865       22.617557
  H            5.579267       28.078147       24.367785
  O            7.119634       26.689687       23.808349
  C            6.293531       25.575575       24.070302
  H            5.671074       25.352201       23.186170
  H            5.641723       25.785482       24.936398
  C            6.268995       25.937784       25.533435
  H            6.676695       24.940389       25.774315
  H            5.166095       25.890219       25.513846
  O            6.716207       26.934015       26.572704
  C            6.230535       26.505531       27.826832
  H            6.638225       25.508138       28.067722
  H            5.127635       26.457959       27.807255
  C            6.270387       25.042871       28.189592
  H            5.647939       24.819507       27.305458
  H            5.618588       25.252789       29.055686
  O            7.158954       23.864328       28.496250
  C            6.332852       22.750216       28.758203
  H            5.710395       22.526843       27.874071
  H            5.681044       22.960124       29.624299
  C            4.826079       22.705633       28.743971
  H            4.836396       23.107512       27.715666
  H            4.807045       23.540793       29.465893
  O            3.608540       21.838226       28.938286
  C            2.464278       22.635751       28.721664
  H            2.474585       23.037639       27.693356
  H            2.445234       23.470921       29.443583
  C            2.504129       21.173092       29.084424
  H            1.881682       20.949728       28.200290
  H            1.852331       21.383009       29.950518
  O            3.392697       19.994549       29.391082
  C            2.566595       18.880437       29.653035
  H            1.944137       18.657063       28.768903
  H            1.914786       19.090345       30.519131
  C            2.591131       18.518228       28.189902
  H            1.487825       18.476666       28.194557
  H            2.998424       17.526835       28.455027
  O            3.078733       18.918217       26.820665
  C            2.629591       17.950481       25.896505
  H            1.526285       17.908907       25.901153
  H            3.036874       16.959086       26.161620
  C            4.136364       17.995064       25.910736
  H            4.155398       17.159905       25.188814
  H            4.126047       17.593186       26.939042
  O            5.353903       18.862472       25.716421
  C            6.498165       18.064946       25.933043
  H            6.517209       17.229777       25.211124
  H            6.487858       17.663059       26.961352
  C            6.538017       16.602287       26.295804
  H            5.915569       16.378923       25.411670
  H            5.886218       16.812204       27.161897
  O            7.426585       15.423744       26.602461
  C            6.600482       14.309632       26.864414
  H            5.978025       14.086258       25.980283
  H            5.948674       14.519539       27.730510
  C            6.640334       12.846972       27.227174
  H            6.017887       12.623599       26.343043
  H            5.988536       13.056880       28.093271
  O            7.528902       11.668430       27.533832
  C            6.702799       10.554318       27.795785
  H            6.080342       10.330944       26.911654
  H            6.050991       10.764225       28.661881
  C            5.196026       10.509735       27.781554
  H            5.206343       10.911613       26.753248
  H            5.176992       11.344894       28.503476
  O            3.978488        9.642327       27.975869
  C            2.834225       10.439853       27.759246
  H            2.844532       10.841740       26.730938
  H            2.815181       11.275022       28.481166
  C            2.858761       10.077643       26.296113
  H            1.755455       10.036081       26.300769
  H            3.266054        9.086251       26.561239
  O            3.346363       10.477632       24.926876
  C            2.897221        9.509897       24.002716
  H            1.793915        9.468322       24.007365
  H            3.304504        8.518501       24.267832
  C            2.921758        9.147687       22.539583
  H            1.818451        9.106125       22.544239
  H            3.329051        8.156295       22.804709
  O            3.409360        9.547676       21.170346
  C            2.960218        8.579941       20.246186
  H            1.856911        8.538366       20.250834
  H            3.367501        7.588545       20.511302
  C            4.466991        8.624524       20.260418
  H            4.486024        7.789364       19.538496
  H            4.456673        8.222645       21.288723
  O            5.684529        9.491931       20.066102
  C            6.828792        8.694405       20.282725
  H            6.847836        7.859236       19.560805
  H            6.818485        8.292518       21.311033
  C            6.804256        9.056615       21.745858
  H            7.211955        8.059220       21.986739
  H            5.701356        9.009050       21.726269
  O            7.251467       10.052846       22.785127
  C            6.765796        9.624362       24.039255
  H            7.173485        8.626969       24.280145
  H            5.662896        9.576790       24.019678
  C            6.805647        8.161702       24.402015
  H            6.183200        7.938328       23.517884
  H            6.153849        8.371610       25.268111
  O            7.694215        6.983159       24.708673
  C            6.868113        5.869047       24.970626
  H            6.245655        5.645673       24.086494
  H            6.216304        6.078955       25.836722
  C            6.843576        6.231256       26.433759
  H            7.251276        5.233862       26.674640
  H            5.740676        6.183692       26.414170
  O            7.290788        7.227488       27.473028
  C            6.805116        6.799003       28.727156
  H            7.212806        5.801611       28.968046
  H            5.702216        6.751432       28.707579
  C            6.844968        5.336344       29.089916
  H            6.222521        5.112970       28.205785
  H            6.193170        5.546251       29.956012
  O            7.733536        4.157801       29.396574
  C            6.907433        3.043689       29.658527
  H            6.284976        2.820315       28.774395
  H            6.255625        3.253597       30.524623
  C            8.414207        3.088272       29.672758
  H            8.433240        2.253112       28.950836
  H            8.403889        2.686394       30.701064
  O            9.631745        3.955680       29.478443
  C           10.776008        3.158154       29.695066
  H           10.795052        2.322985       28.973146
  H           10.765701        2.756266       30.723374
  C           10.736156        4.620814       29.332305
  H           11.387955        4.410896       28.466212
  H           11.358604        4.844177       30.216439
  O            9.847589        5.799356       29.025648
  C           10.673691        6.913468       28.763695
  H           11.325499        6.703561       27.897599
  H           11.296148        7.136842       29.647826
  C           10.633839        8.376128       28.400934
  H           11.285638        8.166210       27.534841
  H           11.256287        8.599492       29.285068
  O            9.745272        9.554671       28.094277
  C           10.571374       10.668783       27.832324
  H           11.223182       10.458875       26.966228
  H           11.193831       10.892156       28.716455
  C           12.078147       10.713366       27.846555
  H           12.097181        9.878206       27.124633
  H           12.067830       10.311487       28.874861
  O           13.295686       11.580773       27.652240
  C           14.439948       10.783247       27.868862
  H           14.458992        9.948078       27.146943
  H           14.429641       10.381360       28.897171
  C           14.464485       10.421038       26.405729
  H           13.361178       10.379476       26.410385
  H           14.871778        9.429645       26.670855
  O           14.952087       10.821027       25.036492
  C           14.502945        9.853291       24.112332
  H           13.399639        9.811717       24.116981
  H           14.910228        8.861896       24.377448
  C           14.527481        9.491082       22.649199
  H           13.424175        9.449520       22.653855
  H           14.934774        8.499689       22.914324
  O           15.015083        9.891071       21.279962
  C           14.565941        8.923335       20.355802
  H           13.462635        8.881761       20.360450
  H           14.973224        7.931940       20.620918
  C           14.590477        8.561126       18.892669
  H           13.487171        8.519564       18.897324
  H           14.997770        7.569733       19.157794
  O           15.078079        8.961115       17.523432
  C           14.628937        7.993379       16.599272
  H           13.525631        7.951805       16.603920
  H           15.036220        7.001984       16.864387
  C           14.668789        6.530720       16.962032
  H           14.046341        6.307346       16.077901
  H           14.016990        6.740628       17.828128
  O           15.557356        5.352177       17.268690
  C           14.731254        4.238065       17.530643
  H           14.108797        4.014691       16.646511
  H           14.079446        4.447973       18.396739
  C           16.238028        4.282648       17.544874
  H           16.257061        3.447488       16.822952
  H           16.227710        3.880770       18.573180
  O           17.455566        5.150056       17.350559
  C           18.599829        4.352530       17.567181
  H           18.618873        3.517361       16.845262
  H           18.589522        3.950642       18.595490
  C           18.559977        5.815190       17.204421
  H           19.211776        5.605272       16.338327
  H           19.182425        6.038554       18.088555
  O           17.671410        6.993732       16.897763
  C           18.497512        8.107844       16.635811
  H           19.149320        7.897937       15.769714
  H           19.119969        8.331218       17.519942
  C           18.522048        7.745635       15.172677
  H           17.418742        7.704073       15.177333
  H           18.929341        6.754242       15.437803
  O           19.009650        8.145624       13.803440
  C           18.560508        7.177888       12.879280
  H           17.457202        7.136314       12.883929
  H           18.967791        6.186493       13.144396
  C           18.600360        5.715229       13.242041
  H           17.977912        5.491855       12.357909
  H           17.948561        5.925136       14.108137
  O           19.488927        4.536686       13.548698
  C           18.662825        3.422574       13.810651
  H           18.040368        3.199200       12.926520
  H           18.011017        3.632481       14.676747
  C           20.169598        3.467157       13.824883
  H           20.188642        2.631998       13.102961
  H           20.159291        3.065279       14.853188
  O           21.387137        4.334565       13.630568
  C           22.531399        3.537039       13.847190
  H           22.550443        2.701870       13.125270
  H           22.521092        3.135151       14.875498
  C           22.555936        3.174830       12.384057
  H           21.452629        3.133267       12.388712
  H           22.963229        2.183437       12.649182
  O           23.043538        3.574818       11.014820
  C           22.594396        2.607083       10.090660
  H           21.491090        2.565508       10.095308
  H           23.001679        1.615687       10.355775
  C           22.554544        4.069742        9.727899
  H           23.206343        3.859825        8.861806
  H           23.176992        4.293106       10.612033
  O           21.665977        5.248285        9.421242
  C           22.492079        6.362397        9.159289
  H           23.143887        6.152490        8.293193
  H           23.114536        6.585771       10.043420
  C           23.998852        6.406980        9.173520
  H           24.017896        5.571821        8.451598
  H           23.988545        6.005102       10.201826
  O           25.216391        7.274388        8.979205
  C           26.360653        6.476862        9.195827
  H           26.379697        5.641693        8.473908
  H           26.350346        6.074974       10.224136
  C           26.336117        6.839071       10.658961
  H           26.743816        5.841676       10.899841
  H           25.233217        6.791507       10.639371
  O           26.783329        7.835303       11.698230
  C           26.297657        7.406818       12.952358
  H           26.705346        6.409425       13.193248
  H           25.194757        7.359246       12.932780
  C           26.337508        5.944159       13.315118
  H           25.715061        5.720785       12.430986
  H           25.685710        6.154066       14.181214
  O           27.226076        4.765616       13.621776
  C           26.399974        3.651504       13.883728
  H           25.777517        3.428130       12.999597
  H           25.748166        3.861411       14.749825
  C           26.424510        3.289295       12.420595
  H           25.321204        3.247732       12.425251
  H           26.831803        2.297902       12.685721
  O           26.912112        3.689283       11.051358
  C           26.462970        2.721548       10.127198
  H           25.359664        2.679973       10.131847
  H           26.870253        1.730152       10.392314
  C           27.969744        2.766131       10.141430
  H           27.988787        1.930971        9.419508
  H           27.959436        2.364253       11.169736
  O           29.187282        3.633539        9.947115
  C           30.331545        2.836013       10.163737
  H           30.350589        2.000844        9.441818
  H           30.321238        2.434125       11.192045
  C           30.307008        3.198222       11.626870
  H           30.714708        2.200827       11.867751
  H           29.204108        3.150658       11.607281
  O           30.754220        4.194454       12.666140
  C           30.268548        3.765969       13.920267
  H           30.676238        2.768576       14.161157
  H           29.165649        3.718397       13.900690
  C           31.775322        3.810552       13.934499
  H           31.794365        2.975392       13.212577
  H           31.765014        3.408674       14.962804
  O           32.992860        4.677960       13.740183
  C           34.137123        3.880434       13.956806
  H           34.156167        3.045265       13.234886
  H           34.126816        3.478546       14.985114
  C           34.112586        4.242643       15.419939
  H           34.520286        3.245248       15.660820
  H           33.009686        4.195078       15.400350
  O           34.559798        5.238875       16.459208
  C           34.074127        4.810390       17.713336
  H           34.481816        3.812997       17.954226
  H           32.971227        4.762818       17.693759
  C           34.113978        3.347730       18.076096
  H           33.491531        3.124357       17.191965
  H           33.462180        3.557638       18.942192
  O           35.002546        2.169188       18.382754
  C           34.176444        1.055076       18.644707
  H           33.553986        0.831702       17.760575
  H           33.524635        1.264983       19.510803
  C           34.151907        1.417285       20.107840
  H           34.559607        0.419890       20.348721
  H           33.049007        1.369720       20.088251
  O           34.599119        2.413516       21.147109
  C           34.113447        1.985032       22.401237
  H           34.521137        0.987639       22.642127
  H           33.010547        1.937460       22.381660
  C           34.073596        3.447691       22.038477
  H           34.725394        3.237774       21.172383
  H           34.696043        3.671055       22.922611
  O           33.185028        4.626234       21.731819
  C           34.011130        5.740346       21.469866
  H           34.662939        5.530438       20.603770
  H           34.633588        5.963720       22.353998
  C           33.986594        6.102555       22.932999
  H           34.394293        5.105160       23.173880
  H           32.883694        6.054991       22.913410
  O           34.433806        7.098787       23.972269
  C           33.948134        6.670302       25.226396
  H           34.355823        5.672909       25.467287
  H           32.845234        6.622730       25.206819
  C           33.923598        7.032511       26.689530
  H           34.331297        6.035116       26.930410
  H           32.820698        6.984947       26.669940
  O           34.370809        8.028743       27.728799
  C           33.885138        7.600258       28.982927
  H           34.292827        6.602865       29.223817
  H           32.782238        7.552686       28.963349
  C           33.924989        6.137598       29.345687
  H           33.302542        5.914225       28.461555
  H           33.273191        6.347506       30.211783
  O           34.813557        4.959056       29.652345
  C           33.987455        3.844944       29.914297
  H           33.364997        3.621570       29.030166
  H           33.335646        4.054851       30.780393
  C           32.480681        3.800361       29.900066
  H           32.490999        4.202239       28.871760
  H           32.461648        4.635520       30.621988
  O           31.263143        2.932953       30.094381
  C           30.118880        3.730479       29.877759
  H           30.129187        4.132366       28.849451
  H           30.099836        4.565648       30.599678
  C           28.612107        3.685896       29.863527
  H           28.622424        4.087774       28.835222
  H           28.593073        4.521055       30.585449
  O           27.394568        2.818488       30.057842
  C           26.250306        3.616014       29.841220
  H           26.260613        4.017901       28.812912
  H           26.231262        4.451183       30.563140
  C           26.210454        5.078673       29.478460
  H           26.862253        4.868756       28.612366
  H           26.832902        5.302037       30.362594
  O           25.321887        6.257216       29.171802
  C           26.147989        7.371328       28.909849
  H           26.799797        7.161421       28.043753
  H           26.770446        7.594702       29.793981
  C           24.641215        7.326745       28.895618
  H           24.651533        7.728623       27.867312
  H           24.622182        8.161905       29.617540
  O           23.423677        6.459337       29.089933
  C           22.279414        7.256863       28.873311
  H           22.289721        7.658751       27.845002
  H           22.260370        8.092032       29.595230
  C           22.254878        7.619072       30.336444
  H           22.662577        6.621677       30.577324
  H           21.151978        7.571508       30.316855
  O           22.702089        8.615304       31.375713
  C           22.216418        8.186819       32.629841
  H           22.624107        7.189426       32.870731
  H           21.113518        8.139247       32.610264
  C           22.256269        6.724160       32.992601
  H           21.633822        6.500786       32.108470
  H           21.604471        6.934067       33.858697
  O           23.144837        5.545617       33.299259
  C           22.318735        4.431505       33.561212
  H           21.696278        4.208131       32.677080
  H           21.666927        4.641412       34.427308
  C           23.825508        4.476088       33.575443
  H           23.844552        3.640929       32.853521
  H           23.815201        4.074210       34.603749
  O           25.043047        5.343496       33.381128
  C           26.187309        4.545970       33.597750
  H           26.206353        3.710801       32.875831
  H           26.177002        4.144082       34.626058
  C           26.227161        3.083310       33.960510
  H           25.604714        2.859937       33.076379
  H           25.575363        3.293218       34.826607
  O           27.115729        1.904768       34.267168
  C           26.289626        0.790656       34.529121
  H           25.667169        0.567282       33.644990
  H           25.637818        1.000563       35.395217
  C           27.796400        0.835239       34.543353
  H           27.815443        0.000079       33.821431
  H           27.786092        0.433361       35.571658
  O           29.013938        1.702646       34.349037
  C           30.158201        0.905120       34.565660
  H           30.177245        0.069951       33.843740
  H           30.147894        0.503233       35.593968
  H           30.817602        1.767249       34.363292
