8

C          0.00000        0.00000        0.00000
H         -0.35666        1.00881        0.00000
H         -0.37212       -0.51729       -0.90165
H         -0.37212       -0.51729        0.90165
O          1.50750        0.00000        0.00000
C          1.94485       -1.34203        0.00000
H          1.82101       -1.41980       -1.05360
H          1.86071       -1.32274        1.01259
