86
H50 C24 O12
C 0.000000 0.000000 0.000000
H -0.356660 1.008810 0.000000
H -0.372119 -0.517286 -0.901654
H -0.372119 -0.517286 0.901654
O 1.507500 0.000000 0.000000
C 1.944850 -1.342030 0.000000
H 1.572730 -1.859320 -0.901654
H 1.572730 -1.859320 0.901654
C 1.944850 -0.342030 0.000000
H 2.581954 -0.354515 -0.901654
H 2.581954 -0.354515 0.901654
O 1.088667 0.898738 0.000000
C 1.944850 2.020910 0.000000
H 2.581958 2.008426 -0.901654
H 2.581958 2.008426 0.901654
C 1.944850 2.020910 -1.000000
H 0.840889 2.008627 -0.987515
H 2.325126 0.984439 -0.987515
O 2.431119 2.725604 -2.240768
C 1.944850 2.020910 -3.362940
H 0.840887 2.008624 -3.350456
H 2.325124 0.984436 -3.350456
C 2.944850 2.020910 -3.362940
H 2.932365 1.383806 -4.264594
H 2.932365 1.383806 -2.461286
O 4.185618 2.877094 -3.362940
C 5.307790 2.020910 -3.362940
H 5.295306 1.383802 -4.264594
H 5.295306 1.383802 -2.461286
C 5.307790 2.020910 -2.362940
H 5.688066 0.984439 -2.375426
H 4.203829 2.008627 -2.375426
O 5.794059 2.725604 -1.122172
C 5.307790 2.020910 0.000000
H 5.688064 0.984436 -0.012484
H 4.203827 2.008624 -0.012484
C 5.307790 2.020910 1.000000
H 5.688066 0.984439 0.987515
H 4.203829 2.008627 0.987515
O 5.794059 2.725604 2.240768
C 5.307790 2.020910 3.362940
H 5.688064 0.984436 3.350456
H 4.203827 2.008624 3.350456
C 5.307790 2.020910 4.362940
H 5.688066 0.984439 4.350455
H 4.203829 2.008627 4.350455
O 5.794059 2.725604 5.603708
C 5.307790 2.020910 6.725880
H 5.688064 0.984436 6.713396
H 4.203827 2.008624 6.713396
C 6.307790 2.020910 6.725880
H 6.295305 1.383806 5.824226
H 6.295305 1.383806 7.627534
O 7.548558 2.877094 6.725880
C 8.670730 2.020910 6.725880
H 8.658246 1.383802 5.824226
H 8.658246 1.383802 7.627534
C 8.670730 2.020910 5.725880
H 7.566769 2.008627 5.738366
H 9.051006 0.984439 5.738366
O 9.156999 2.725604 4.485112
C 8.670730 2.020910 3.362940
H 7.566767 2.008624 3.375424
H 9.051004 0.984436 3.375424
C 9.670730 2.020910 3.362940
H 9.658245 1.383806 2.461286
H 9.658245 1.383806 4.264594
O 10.911499 2.877094 3.362940
C 12.033670 2.020910 3.362940
H 12.021186 1.383802 2.461286
H 12.021186 1.383802 4.264594
C 12.033670 2.020910 2.362940
H 10.929709 2.008627 2.375426
H 12.413946 0.984439 2.375426
O 12.519939 2.725604 1.122172
C 12.033670 2.020910 -0.000000
H 10.929707 2.008624 0.012484
H 12.413944 0.984436 0.012484
C 13.033670 2.020910 -0.000000
H 13.021185 1.383806 -0.901654
H 13.021185 1.383806 0.901654
O 14.274439 2.877094 -0.000000
C 15.396611 2.020910 -0.000000
H 15.384127 1.383802 -0.901654
H 15.384127 1.383802 0.901654
H 16.079282 2.888660 -0.000000