86
H50 C24 O12
C 0.000000 0.000000 0.000000
H -0.356660 1.008810 0.000000
H -0.372119 -0.517286 -0.901654
H -0.372119 -0.517286 0.901654
O 1.507500 0.000000 0.000000
C 1.944850 -1.342030 0.000000
H 1.572730 -1.859320 -0.901654
H 1.572730 -1.859320 0.901654
C 2.944850 -1.342030 0.000000
H 2.932365 -1.979134 -0.901654
H 2.932365 -1.979134 0.901654
O 4.185618 -0.485847 0.000000
C 5.307790 -1.342030 0.000000
H 5.295306 -1.979138 -0.901654
H 5.295306 -1.979138 0.901654
C 5.307790 -2.342030 0.000000
H 4.670686 -2.329545 -0.901654
H 4.670686 -2.329545 0.901654
O 6.163974 -3.582798 0.000000
C 5.307790 -4.704970 0.000000
H 4.670682 -4.692486 -0.901654
H 4.670682 -4.692486 0.901654
C 6.307790 -4.704970 0.000000
H 6.295305 -5.342074 -0.901654
H 6.295305 -5.342074 0.901654
O 7.548558 -3.848787 0.000000
C 8.670730 -4.704970 0.000000
H 8.658246 -5.342078 -0.901654
H 8.658246 -5.342078 0.901654
C 8.670730 -4.704970 -1.000000
H 7.566769 -4.717254 -0.987515
H 9.051006 -5.741441 -0.987515
O 9.156999 -4.000277 -2.240768
C 8.670730 -4.704970 -3.362940
H 7.566767 -4.717257 -3.350456
H 9.051004 -5.741444 -3.350456
C 9.670730 -4.704970 -3.362940
H 9.658245 -5.342074 -4.264594
H 9.658245 -5.342074 -2.461286
O 10.911499 -3.848787 -3.362940
C 12.033670 -4.704970 -3.362940
H 12.021186 -5.342078 -4.264594
H 12.021186 -5.342078 -2.461286
C 13.033670 -4.704970 -3.362940
H 13.021185 -5.342074 -4.264594
H 13.021185 -5.342074 -2.461286
O 14.274439 -3.848787 -3.362940
C 15.396611 -4.704970 -3.362940
H 15.384127 -5.342078 -4.264594
H 15.384127 -5.342078 -2.461286
C 15.396611 -5.704970 -3.362940
H 14.759507 -5.692485 -4.264594
H 14.759507 -5.692485 -2.461286
O 16.252794 -6.945738 -3.362940
C 15.396611 -8.067910 -3.362940
H 14.759503 -8.055426 -4.264594
H 14.759503 -8.055426 -2.461286
C 14.396611 -8.067910 -3.362940
H 14.409096 -7.430806 -4.264594
H 14.409096 -7.430806 -2.461286
O 13.155842 -8.924094 -3.362940
C 12.033670 -8.067910 -3.362940
H 12.046154 -7.430802 -4.264594
H 12.046154 -7.430802 -2.461286
C 12.033670 -8.067910 -4.362940
H 10.929709 -8.080194 -4.350455
H 12.413946 -9.104381 -4.350455
O 12.519939 -7.363217 -5.603708
C 12.033670 -8.067910 -6.725880
H 10.929707 -8.080197 -6.713396
H 12.413944 -9.104384 -6.713396
C 12.033670 -8.067910 -7.725880
H 10.929709 -8.080194 -7.713395
H 12.413946 -9.104381 -7.713395
O 12.519939 -7.363217 -8.966649
C 12.033670 -8.067910 -10.088820
H 10.929707 -8.080197 -10.076336
H 12.413944 -9.104384 -10.076336
C 13.033670 -8.067910 -10.088820
H 13.021185 -8.705014 -10.990474
H 13.021185 -8.705014 -9.187166
O 14.274439 -7.211727 -10.088820
C 15.396611 -8.067910 -10.088820
H 15.384127 -8.705018 -10.990474
H 15.384127 -8.705018 -9.187166
H 16.079282 -7.200161 -10.088820