86
H50 C24 O12
C 0.000000 0.000000 0.000000
H -0.356660 1.008810 0.000000
H -0.372119 -0.517286 -0.901654
H -0.372119 -0.517286 0.901654
O 1.507500 0.000000 0.000000
C 1.944850 -1.342030 0.000000
H 1.572730 -1.859320 -0.901654
H 1.572730 -1.859320 0.901654
C 4.944850 -1.342030 0.000000
H 4.932365 -1.979134 -0.901654
H 4.932365 -1.979134 0.901654
O 6.185618 -0.485847 0.000000
C 7.307790 -1.342030 0.000000
H 7.295306 -1.979138 -0.901654
H 7.295306 -1.979138 0.901654
C 7.307790 -1.342030 -3.000000
H 6.203829 -1.354313 -2.987515
H 7.688066 -2.378501 -2.987515
O 7.794059 -0.637337 -4.240768
C 7.307790 -1.342030 -5.362940
H 6.203827 -1.354317 -5.350456
H 7.688064 -2.378504 -5.350456
C 10.307790 -1.342030 -5.362940
H 10.295305 -1.979134 -6.264594
H 10.295305 -1.979134 -4.461286
O 11.548558 -0.485847 -5.362940
C 12.670730 -1.342030 -5.362940
H 12.658246 -1.979138 -6.264594
H 12.658246 -1.979138 -4.461286
C 15.670730 -1.342030 -5.362940
H 15.658245 -1.979134 -6.264594
H 15.658245 -1.979134 -4.461286
O 16.911499 -0.485847 -5.362940
C 18.033670 -1.342030 -5.362940
H 18.021186 -1.979138 -6.264594
H 18.021186 -1.979138 -4.461286
C 18.033670 -4.342030 -5.362940
H 17.396566 -4.329545 -6.264594
H 17.396566 -4.329545 -4.461286
O 18.889854 -5.582798 -5.362940
C 18.033670 -6.704970 -5.362940
H 17.396563 -6.692486 -6.264594
H 17.396563 -6.692486 -4.461286
C 18.033670 -6.704970 -8.362940
H 16.929709 -6.717254 -8.350455
H 18.413946 -7.741441 -8.350455
O 18.519939 -6.000277 -9.603708
C 18.033670 -6.704970 -10.725880
H 16.929707 -6.717257 -10.713396
H 18.413944 -7.741444 -10.713396
C 15.033670 -6.704970 -10.725880
H 15.046156 -6.067866 -11.627534
H 15.046156 -6.067866 -9.824226
O 13.792902 -7.561154 -10.725880
C 12.670730 -6.704970 -10.725880
H 12.683214 -6.067862 -11.627534
H 12.683214 -6.067862 -9.824226
C 9.670730 -6.704970 -10.725880
H 9.683216 -6.067866 -11.627534
H 9.683216 -6.067866 -9.824226
O 8.429962 -7.561154 -10.725880
C 7.307790 -6.704970 -10.725880
H 7.320274 -6.067862 -11.627534
H 7.320274 -6.067862 -9.824226
C 7.307790 -6.704970 -13.725880
H 6.203829 -6.717254 -13.713395
H 7.688066 -7.741441 -13.713395
O 7.794059 -6.000277 -14.966649
C 7.307790 -6.704970 -16.088820
H 6.203827 -6.717257 -16.076336
H 7.688064 -7.741444 -16.076336
C 10.307790 -6.704970 -16.088820
H 10.295305 -7.342074 -16.990474
H 10.295305 -7.342074 -15.187166
O 11.548558 -5.848787 -16.088820
C 12.670730 -6.704970 -16.088820
H 12.658246 -7.342078 -16.990474
H 12.658246 -7.342078 -15.187166
C 12.670730 -3.704970 -16.088820
H 13.307834 -3.717456 -16.990474
H 13.307834 -3.717456 -15.187166
O 11.814547 -2.464202 -16.088820
C 12.670730 -1.342030 -16.088820
H 13.307838 -1.354514 -16.990474
H 13.307838 -1.354514 -15.187166
H 11.802981 -0.659358 -16.088820