30
H18 C8 O4
C 0.000000 0.000000 0.000000
H -0.356660 1.008810 0.000000
H -0.372119 -0.517286 -0.901654
H -0.372119 -0.517286 0.901654
O 1.507500 0.000000 0.000000
C 1.944850 -1.342030 0.000000
H 1.572730 -1.859320 -0.901654
H 1.572730 -1.859320 0.901654
C 1.944850 -2.849530 0.000000
H 1.307746 -2.837045 -0.901654
H 1.307746 -2.837045 0.901654
O 2.801033 -4.090298 0.000000
C 1.944850 -5.212470 0.000000
H 1.307742 -5.199986 -0.901654
H 1.307742 -5.199986 0.901654
C 0.437350 -5.212470 0.000000
H 0.449835 -4.575366 -0.901654
H 0.449835 -4.575366 0.901654
O -0.803418 -6.068654 0.000000
C -1.925590 -5.212470 0.000000
H -1.913106 -4.575362 -0.901654
H -1.913106 -4.575362 0.901654
C -1.925590 -6.719970 0.000000
H -2.562694 -6.707485 -0.901654
H -2.562694 -6.707485 0.901654
O -1.069407 -7.960738 0.000000
C -1.925590 -9.082910 0.000000
H -2.562698 -9.070426 -0.901654
H -2.562698 -9.070426 0.901654
H -1.057841 -9.765582 0.000000