86
H50 C24 O12
C 0.000000 0.000000 0.000000
H -0.356660 1.008810 0.000000
H -0.372119 -0.517286 -0.901654
H -0.372119 -0.517286 0.901654
O 1.507500 0.000000 0.000000
C 1.944850 -1.342030 0.000000
H 1.572730 -1.859320 -0.901654
H 1.572730 -1.859320 0.901654
C 1.944850 -1.342030 1.000000
H 2.325126 -2.378501 0.987515
H 0.840889 -1.354313 0.987515
O 2.431119 -0.637337 2.240768
C 1.944850 -1.342030 3.362940
H 2.325124 -2.378504 3.350456
H 0.840887 -1.354317 3.350456
C 2.944850 -1.342030 3.362940
H 2.932365 -1.979134 2.461286
H 2.932365 -1.979134 4.264594
O 4.185618 -0.485847 3.362940
C 5.307790 -1.342030 3.362940
H 5.295306 -1.979138 2.461286
H 5.295306 -1.979138 4.264594
C 5.307790 -1.342030 4.362940
H 5.688066 -2.378501 4.350455
H 4.203829 -1.354313 4.350455
O 5.794059 -0.637337 5.603708
C 5.307790 -1.342030 6.725880
H 5.688064 -2.378504 6.713396
H 4.203827 -1.354317 6.713396
C 5.307790 -1.342030 7.725880
H 5.688066 -2.378501 7.713395
H 4.203829 -1.354313 7.713395
O 5.794059 -0.637337 8.966649
C 5.307790 -1.342030 10.088820
H 5.688064 -2.378504 10.076336
H 4.203827 -1.354317 10.076336
C 6.307790 -1.342030 10.088820
H 6.295305 -1.979134 9.187166
H 6.295305 -1.979134 10.990474
O 7.548558 -0.485847 10.088820
C 8.670730 -1.342030 10.088820
H 8.658246 -1.979138 9.187166
H 8.658246 -1.979138 10.990474
C 8.670730 -1.342030 11.088820
H 9.051006 -2.378501 11.076335
H 7.566769 -1.354313 11.076335
O 9.156999 -0.637337 12.329589
C 8.670730 -1.342030 13.451761
H 9.051004 -2.378504 13.439277
H 7.566767 -1.354317 13.439277
C 9.670730 -1.342030 13.451761
H 9.658245 -1.979134 12.550107
H 9.658245 -1.979134 14.353415
O 10.911499 -0.485847 13.451761
C 12.033670 -1.342030 13.451761
H 12.021186 -1.979138 12.550107
H 12.021186 -1.979138 14.353415
C 12.033670 -0.342030 13.451761
H 12.670774 -0.354515 12.550107
H 12.670774 -0.354515 14.353415
O 11.177487 0.898738 13.451761
C 12.033670 2.020910 13.451761
H 12.670778 2.008426 12.550107
H 12.670778 2.008426 14.353415
C 13.033670 2.020910 13.451761
H 13.021185 1.383806 12.550107
H 13.021185 1.383806 14.353415
O 14.274439 2.877094 13.451761
C 15.396611 2.020910 13.451761
H 15.384127 1.383802 12.550107
H 15.384127 1.383802 14.353415
C 16.396611 2.020910 13.451761
H 16.384125 1.383806 12.550107
H 16.384125 1.383806 14.353415
O 17.637379 2.877094 13.451761
C 18.759551 2.020910 13.451761
H 18.747067 1.383802 12.550107
H 18.747067 1.383802 14.353415
C 18.759551 2.020910 14.451761
H 19.139827 0.984439 14.439275
H 17.655589 2.008627 14.439275
O 19.245819 2.725604 15.692529
C 18.759551 2.020910 16.814701
H 19.139824 0.984436 16.802217
H 17.655587 2.008624 16.802217
H 19.252388 2.735123 17.497373