86
H50 C24 O12
C 0.000000 0.000000 0.000000
H -0.356660 1.008810 0.000000
H -0.372119 -0.517286 -0.901654
H -0.372119 -0.517286 0.901654
O 1.507500 0.000000 0.000000
C 1.944850 -1.342030 0.000000
H 1.572730 -1.859320 -0.901654
H 1.572730 -1.859320 0.901654
C 1.944850 -1.342030 1.000000
H 2.325126 -2.378501 0.987515
H 0.840889 -1.354313 0.987515
O 2.431119 -0.637337 2.240768
C 1.944850 -1.342030 3.362940
H 2.325124 -2.378504 3.350456
H 0.840887 -1.354317 3.350456
C 2.944850 -1.342030 3.362940
H 2.932365 -1.979134 2.461286
H 2.932365 -1.979134 4.264594
O 4.185618 -0.485847 3.362940
C 5.307790 -1.342030 3.362940
H 5.295306 -1.979138 2.461286
H 5.295306 -1.979138 4.264594
C 5.307790 -0.342030 3.362940
H 5.944894 -0.354515 2.461286
H 5.944894 -0.354515 4.264594
O 4.451607 0.898738 3.362940
C 5.307790 2.020910 3.362940
H 5.944898 2.008426 2.461286
H 5.944898 2.008426 4.264594
C 5.307790 2.020910 2.362940
H 4.203829 2.008627 2.375426
H 5.688066 0.984439 2.375426
O 5.794059 2.725604 1.122172
C 5.307790 2.020910 0.000000
H 4.203827 2.008624 0.012484
H 5.688064 0.984436 0.012484
C 6.307790 2.020910 0.000000
H 6.295305 1.383806 -0.901654
H 6.295305 1.383806 0.901654
O 7.548558 2.877094 0.000000
C 8.670730 2.020910 0.000000
H 8.658246 1.383802 -0.901654
H 8.658246 1.383802 0.901654
C 8.670730 3.020910 0.000000
H 9.307834 3.008425 -0.901654
H 9.307834 3.008425 0.901654
O 7.814547 4.261678 0.000000
C 8.670730 5.383850 0.000000
H 9.307838 5.371366 -0.901654
H 9.307838 5.371366 0.901654
C 8.670730 5.383850 -1.000000
H 7.566769 5.371567 -0.987515
H 9.051006 4.347379 -0.987515
O 9.156999 6.088544 -2.240768
C 8.670730 5.383850 -3.362940
H 7.566767 5.371564 -3.350456
H 9.051004 4.347376 -3.350456
C 9.670730 5.383850 -3.362940
H 9.658245 4.746746 -4.264594
H 9.658245 4.746746 -2.461286
O 10.911499 6.240034 -3.362940
C 12.033670 5.383850 -3.362940
H 12.021186 4.746742 -4.264594
H 12.021186 4.746742 -2.461286
C 12.033670 6.383850 -3.362940
H 12.670774 6.371365 -4.264594
H 12.670774 6.371365 -2.461286
O 11.177487 7.624619 -3.362940
C 12.033670 8.746790 -3.362940
H 12.670778 8.734306 -4.264594
H 12.670778 8.734306 -2.461286
C 13.033670 8.746790 -3.362940
H 13.021185 8.109686 -4.264594
H 13.021185 8.109686 -2.461286
O 14.274439 9.602974 -3.362940
C 15.396611 8.746790 -3.362940
H 15.384127 8.109683 -4.264594
H 15.384127 8.109683 -2.461286
C 16.396611 8.746790 -3.362940
H 16.384125 8.109686 -4.264594
H 16.384125 8.109686 -2.461286
O 17.637379 9.602974 -3.362940
C 18.759551 8.746790 -3.362940
H 18.747067 8.109683 -4.264594
H 18.747067 8.109683 -2.461286
H 19.442223 9.614540 -3.362940