37
H22 C10 O5
C 0.000000 0.000000 0.000000
H -0.356660 1.008810 0.000000
H -0.372119 -0.517286 -0.901654
H -0.372119 -0.517286 0.901654
O 1.507500 0.000000 0.000000
C 1.944850 -1.342030 0.000000
H 1.572730 -1.859320 -0.901654
H 1.572730 -1.859320 0.901654
C 4.414041 -3.045878 0.000000
H 4.041922 -3.563164 -0.901654
H 4.041922 -3.563164 0.901654
O 5.921541 -3.045878 0.000000
C 6.358891 -4.387908 0.000000
H 5.986771 -4.905198 -0.901654
H 5.986771 -4.905198 0.901654
C 8.828082 -6.091755 0.000000
H 8.455963 -6.609041 -0.901654
H 8.455963 -6.609041 0.901654
O 10.335582 -6.091755 0.000000
C 10.772932 -7.433785 0.000000
H 10.400812 -7.951075 -0.901654
H 10.400812 -7.951075 0.901654
C 13.242122 -9.137633 0.000000
H 12.870003 -9.654919 -0.901654
H 12.870003 -9.654919 0.901654
O 14.749622 -9.137633 0.000000
C 15.186972 -10.479663 0.000000
H 14.814852 -10.996953 -0.901654
H 14.814852 -10.996953 0.901654
C 17.656163 -12.183511 0.000000
H 17.284044 -12.700797 -0.901654
H 17.284044 -12.700797 0.901654
O 19.163663 -12.183511 0.000000
C 19.601013 -13.525541 0.000000
H 19.228893 -14.042831 -0.901654
H 19.228893 -14.042831 0.901654
H 20.655733 -13.199051 0.000000