86
H50 C24 O12
C 0.000000 0.000000 0.000000
H -0.356660 1.008810 0.000000
H -0.372119 -0.517286 -0.901654
H -0.372119 -0.517286 0.901654
O 1.507500 0.000000 0.000000
C 1.944850 -1.342030 0.000000
H 1.572730 -1.859320 -0.901654
H 1.572730 -1.859320 0.901654
C 4.414041 -3.045878 0.000000
H 4.041922 -3.563164 -0.901654
H 4.041922 -3.563164 0.901654
O 5.921541 -3.045878 0.000000
C 6.358891 -4.387908 0.000000
H 5.986771 -4.905198 -0.901654
H 5.986771 -4.905198 0.901654
C 8.828082 -6.091755 0.000000
H 8.455963 -6.609041 -0.901654
H 8.455963 -6.609041 0.901654
O 10.335582 -6.091755 0.000000
C 10.772932 -7.433785 0.000000
H 10.400812 -7.951075 -0.901654
H 10.400812 -7.951075 0.901654
C 13.242122 -9.137633 0.000000
H 12.870003 -9.654919 -0.901654
H 12.870003 -9.654919 0.901654
O 14.749622 -9.137633 0.000000
C 15.186972 -10.479663 0.000000
H 14.814852 -10.996953 -0.901654
H 14.814852 -10.996953 0.901654
C 17.656163 -12.183511 0.000000
H 17.284044 -12.700797 -0.901654
H 17.284044 -12.700797 0.901654
O 19.163663 -12.183511 0.000000
C 19.601013 -13.525541 0.000000
H 19.228893 -14.042831 -0.901654
H 19.228893 -14.042831 0.901654
C 22.070204 -15.229388 0.000000
H 21.698085 -15.746674 -0.901654
H 21.698085 -15.746674 0.901654
O 23.577704 -15.229388 0.000000
C 24.015054 -16.571418 0.000000
H 23.642934 -17.088708 -0.901654
H 23.642934 -17.088708 0.901654
C 26.484245 -18.275266 0.000000
H 26.112126 -18.792552 -0.901654
H 26.112126 -18.792552 0.901654
O 27.991745 -18.275266 0.000000
C 28.429095 -19.617296 0.000000
H 28.056975 -20.134586 -0.901654
H 28.056975 -20.134586 0.901654
C 30.898286 -21.321144 0.000000
H 30.526167 -21.838430 -0.901654
H 30.526167 -21.838430 0.901654
O 32.405786 -21.321144 0.000000
C 32.843136 -22.663174 0.000000
H 32.471016 -23.180464 -0.901654
H 32.471016 -23.180464 0.901654
C 35.312326 -24.367021 0.000000
H 34.940207 -24.884307 -0.901654
H 34.940207 -24.884307 0.901654
O 36.819826 -24.367021 0.000000
C 37.257176 -25.709051 0.000000
H 36.885056 -26.226341 -0.901654
H 36.885056 -26.226341 0.901654
C 39.726367 -27.412899 0.000000
H 39.354248 -27.930185 -0.901654
H 39.354248 -27.930185 0.901654
O 41.233867 -27.412899 0.000000
C 41.671217 -28.754929 0.000000
H 41.299097 -29.272219 -0.901654
H 41.299097 -29.272219 0.901654
C 44.140408 -30.458777 0.000000
H 43.768289 -30.976063 -0.901654
H 43.768289 -30.976063 0.901654
O 45.647908 -30.458777 0.000000
C 46.085258 -31.800807 0.000000
H 45.713138 -32.318097 -0.901654
H 45.713138 -32.318097 0.901654
C 48.554449 -33.504654 0.000000
H 48.182330 -34.021940 -0.901654
H 48.182330 -34.021940 0.901654
O 50.061949 -33.504654 0.000000
C 50.499299 -34.846684 0.000000
H 50.127179 -35.363974 -0.901654
H 50.127179 -35.363974 0.901654
H 51.554019 -34.520194 0.000000