72
H42 C20 O10
C 0.000000 0.000000 0.000000
H -0.356660 1.008810 0.000000
H -0.372119 -0.517286 -0.901654
H -0.372119 -0.517286 0.901654
O 1.507500 0.000000 0.000000
C 1.944850 -1.342030 0.000000
H 1.572730 -1.859320 -0.901654
H 1.572730 -1.859320 0.901654
C 2.767914 -1.909979 0.000000
H 2.395795 -2.427265 -0.901654
H 2.395795 -2.427265 0.901654
O 4.275414 -1.909979 0.000000
C 4.712764 -3.252009 0.000000
H 4.340644 -3.769299 -0.901654
H 4.340644 -3.769299 0.901654
C 5.535827 -3.819958 0.000000
H 5.163708 -4.337244 -0.901654
H 5.163708 -4.337244 0.901654
O 7.043327 -3.819958 0.000000
C 7.480677 -5.161988 0.000000
H 7.108557 -5.679278 -0.901654
H 7.108557 -5.679278 0.901654
C 8.303741 -5.729938 0.000000
H 7.931622 -6.247224 -0.901654
H 7.931622 -6.247224 0.901654
O 9.811241 -5.729938 0.000000
C 10.248591 -7.071968 0.000000
H 9.876471 -7.589258 -0.901654
H 9.876471 -7.589258 0.901654
C 11.071654 -7.639917 0.000000
H 10.699535 -8.157203 -0.901654
H 10.699535 -8.157203 0.901654
O 12.579154 -7.639917 0.000000
C 13.016504 -8.981947 0.000000
H 12.644384 -9.499237 -0.901654
H 12.644384 -9.499237 0.901654
C 13.839568 -9.549896 0.000000
H 13.467449 -10.067182 -0.901654
H 13.467449 -10.067182 0.901654
O 15.347068 -9.549896 0.000000
C 15.784418 -10.891926 0.000000
H 15.412298 -11.409216 -0.901654
H 15.412298 -11.409216 0.901654
C 16.607482 -11.459875 0.000000
H 16.235363 -11.977161 -0.901654
H 16.235363 -11.977161 0.901654
O 18.114982 -11.459875 0.000000
C 18.552332 -12.801905 0.000000
H 18.180212 -13.319195 -0.901654
H 18.180212 -13.319195 0.901654
C 19.375395 -13.369855 0.000000
H 19.003276 -13.887141 -0.901654
H 19.003276 -13.887141 0.901654
O 20.882895 -13.369855 0.000000
C 21.320245 -14.711885 0.000000
H 20.948125 -15.229175 -0.901654
H 20.948125 -15.229175 0.901654
C 22.143309 -15.279834 0.000000
H 21.771190 -15.797120 -0.901654
H 21.771190 -15.797120 0.901654
O 23.650809 -15.279834 0.000000
C 24.088159 -16.621864 0.000000
H 23.716039 -17.139154 -0.901654
H 23.716039 -17.139154 0.901654
C 24.911222 -17.189813 0.000000
H 24.539103 -17.707099 -0.901654
H 24.539103 -17.707099 0.901654
O 26.418722 -17.189813 0.000000
C 26.856072 -18.531843 0.000000
H 26.483952 -19.049133 -0.901654
H 26.483952 -19.049133 0.901654
H 27.910792 -18.205353 0.000000