177
H102 C50 O25
C 0.000000 0.000000 0.000000
H -0.356660 1.008810 0.000000
H -0.372119 -0.517286 -0.901654
H -0.372119 -0.517286 0.901654
O 1.507500 0.000000 0.000000
C 1.944850 -1.342030 0.000000
H 1.572730 -1.859320 -0.901654
H 1.572730 -1.859320 0.901654
C 3.452350 -1.342030 0.000000
H 3.439865 -1.979134 -0.901654
H 3.439865 -1.979134 0.901654
O 4.693118 -0.485847 0.000000
C 5.815290 -1.342030 0.000000
H 5.802806 -1.979138 -0.901654
H 5.802806 -1.979138 0.901654
C 5.815290 -1.342030 1.507500
H 6.195566 -2.378501 1.495015
H 4.711329 -1.354313 1.495015
O 6.301559 -0.637337 2.748268
C 5.815290 -1.342030 3.870440
H 6.195564 -2.378504 3.857956
H 4.711327 -1.354317 3.857956
C 5.815290 -2.849530 3.870440
H 5.178186 -2.837045 2.968786
H 5.178186 -2.837045 4.772094
O 6.671474 -4.090298 3.870440
C 5.815290 -5.212470 3.870440
H 5.178182 -5.199986 2.968786
H 5.178182 -5.199986 4.772094
C 5.815290 -6.719970 3.870440
H 5.178186 -6.707485 2.968786
H 5.178186 -6.707485 4.772094
O 6.671474 -7.960738 3.870440
C 5.815290 -9.082910 3.870440
H 5.178182 -9.070426 2.968786
H 5.178182 -9.070426 4.772094
C 5.815290 -9.082910 2.362940
H 4.711329 -9.095194 2.375426
H 6.195566 -10.119381 2.375426
O 6.301559 -8.378217 1.122172
C 5.815290 -9.082910 -0.000000
H 4.711327 -9.095197 0.012484
H 6.195564 -10.119384 0.012484
C 7.322790 -9.082910 -0.000000
H 7.310305 -9.720014 -0.901654
H 7.310305 -9.720014 0.901654
O 8.563558 -8.226727 -0.000000
C 9.685730 -9.082910 -0.000000
H 9.673246 -9.720018 -0.901654
H 9.673246 -9.720018 0.901654
C 9.685730 -7.575410 -0.000000
H 10.322834 -7.587896 -0.901654
H 10.322834 -7.587896 0.901654
O 8.829547 -6.334642 -0.000000
C 9.685730 -5.212470 -0.000000
H 10.322838 -5.224954 -0.901654
H 10.322838 -5.224954 0.901654
C 11.193230 -5.212470 -0.000000
H 11.180745 -5.849574 -0.901654
H 11.180745 -5.849574 0.901654
O 12.433999 -4.356287 -0.000000
C 13.556170 -5.212470 -0.000000
H 13.543686 -5.849578 -0.901654
H 13.543686 -5.849578 0.901654
C 13.556170 -6.719970 -0.000000
H 12.919066 -6.707485 -0.901654
H 12.919066 -6.707485 0.901654
O 14.412354 -7.960738 -0.000000
C 13.556170 -9.082910 -0.000000
H 12.919063 -9.070426 -0.901654
H 12.919063 -9.070426 0.901654
C 13.556170 -9.082910 -1.507500
H 12.452209 -9.095194 -1.495015
H 13.936446 -10.119381 -1.495015
O 14.042439 -8.378217 -2.748268
C 13.556170 -9.082910 -3.870440
H 12.452207 -9.095197 -3.857956
H 13.936444 -10.119384 -3.857956
C 13.556170 -9.082910 -5.377940
H 12.452209 -9.095194 -5.365455
H 13.936446 -10.119381 -5.365455
O 14.042439 -8.378217 -6.618708
C 13.556170 -9.082910 -7.740880
H 12.452207 -9.095197 -7.728396
H 13.936444 -10.119384 -7.728396
C 13.556170 -10.590410 -7.740880
H 12.919066 -10.577925 -8.642534
H 12.919066 -10.577925 -6.839226
O 14.412354 -11.831179 -7.740880
C 13.556170 -12.953350 -7.740880
H 12.919063 -12.940866 -8.642534
H 12.919063 -12.940866 -6.839226
C 13.556170 -12.953350 -6.233380
H 13.936446 -13.989821 -6.245866
H 12.452209 -12.965634 -6.245866
O 14.042439 -12.248657 -4.992612
C 13.556170 -12.953350 -3.870440
H 13.936444 -13.989824 -3.882924
H 12.452207 -12.965637 -3.882924
C 13.556170 -12.953350 -2.362940
H 13.936446 -13.989821 -2.375426
H 12.452209 -12.965634 -2.375426
O 14.042439 -12.248657 -1.122172
C 13.556170 -12.953350 -0.000000
H 13.936444 -13.989824 -0.012484
H 12.452207 -12.965637 -0.012484
C 13.556170 -14.460850 -0.000000
H 12.919066 -14.448365 -0.901654
H 12.919066 -14.448365 0.901654
O 14.412354 -15.701619 -0.000000
C 13.556170 -16.823791 -0.000000
H 12.919063 -16.811307 -0.901654
H 12.919063 -16.811307 0.901654
C 13.556170 -18.331291 -0.000000
H 12.919066 -18.318805 -0.901654
H 12.919066 -18.318805 0.901654
O 14.412354 -19.572059 -0.000000
C 13.556170 -20.694231 -0.000000
H 12.919063 -20.681747 -0.901654
H 12.919063 -20.681747 0.901654
C 13.556170 -22.201731 -0.000000
H 12.919066 -22.189245 -0.901654
H 12.919066 -22.189245 0.901654
O 14.412354 -23.442499 -0.000000
C 13.556170 -24.564671 -0.000000
H 12.919063 -24.552187 -0.901654
H 12.919063 -24.552187 0.901654
C 13.556170 -24.564671 -1.507500
H 12.452209 -24.576954 -1.495015
H 13.936446 -25.601142 -1.495015
O 14.042439 -23.859977 -2.748268
C 13.556170 -24.564671 -3.870440
H 12.452207 -24.576957 -3.857956
H 13.936444 -25.601145 -3.857956
C 13.556170 -26.072171 -3.870440
H 12.919066 -26.059685 -4.772094
H 12.919066 -26.059685 -2.968786
O 14.412354 -27.312939 -3.870440
C 13.556170 -28.435111 -3.870440
H 12.919063 -28.422627 -4.772094
H 12.919063 -28.422627 -2.968786
C 13.556170 -28.435111 -2.362940
H 13.936446 -29.471582 -2.375426
H 12.452209 -28.447394 -2.375426
O 14.042439 -27.730417 -1.122172
C 13.556170 -28.435111 -0.000000
H 13.936444 -29.471585 -0.012484
H 12.452207 -28.447397 -0.012484
C 13.556170 -29.942611 -0.000000
H 12.919066 -29.930125 -0.901654
H 12.919066 -29.930125 0.901654
O 14.412354 -31.183379 -0.000000
C 13.556170 -32.305551 -0.000000
H 12.919063 -32.293067 -0.901654
H 12.919063 -32.293067 0.901654
C 15.063670 -32.305551 -0.000000
H 15.051185 -32.942655 -0.901654
H 15.051185 -32.942655 0.901654
O 16.304439 -31.449368 -0.000000
C 17.426611 -32.305551 -0.000000
H 17.414127 -32.942659 -0.901654
H 17.414127 -32.942659 0.901654
C 17.426611 -33.813051 -0.000000
H 16.789507 -33.800566 -0.901654
H 16.789507 -33.800566 0.901654
O 18.282794 -35.053819 -0.000000
C 17.426611 -36.175991 -0.000000
H 16.789503 -36.163507 -0.901654
H 16.789503 -36.163507 0.901654
C 17.426611 -36.175991 1.507500
H 17.806886 -37.212462 1.495015
H 16.322649 -36.188275 1.495015
O 17.912879 -35.471298 2.748268
C 17.426611 -36.175991 3.870440
H 17.806884 -37.212465 3.857956
H 16.322647 -36.188278 3.857956
H 17.919448 -35.461778 4.553112