30
H18 C8 O4
C 0.000000 0.000000 0.000000
H -0.356660 1.008810 0.000000
H -0.372119 -0.517286 -0.901654
H -0.372119 -0.517286 0.901654
O 1.507500 0.000000 0.000000
C 1.944850 -1.342030 0.000000
H 1.572730 -1.859320 -0.901654
H 1.572730 -1.859320 0.901654
C 3.452350 -1.342030 0.000000
H 3.439865 -1.979134 -0.901654
H 3.439865 -1.979134 0.901654
O 4.693118 -0.485847 0.000000
C 5.815290 -1.342030 0.000000
H 5.802806 -1.979138 -0.901654
H 5.802806 -1.979138 0.901654
C 5.815290 0.165470 0.000000
H 6.452394 0.152985 -0.901654
H 6.452394 0.152985 0.901654
O 4.959107 1.406238 0.000000
C 5.815290 2.528410 0.000000
H 6.452398 2.515926 -0.901654
H 6.452398 2.515926 0.901654
C 5.815290 2.528410 1.507500
H 6.195566 1.491939 1.495015
H 4.711329 2.516127 1.495015
O 6.301559 3.233104 2.748268
C 5.815290 2.528410 3.870440
H 6.195564 1.491936 3.857956
H 4.711327 2.516124 3.857956
H 6.308128 3.242623 4.553112