128
H74 C36 O18
C 0.000000 0.000000 0.000000
H -0.356660 1.008810 0.000000
H -0.372119 -0.517286 -0.901654
H -0.372119 -0.517286 0.901654
O 1.507500 0.000000 0.000000
C 1.944850 -1.342030 0.000000
H 1.572730 -1.859320 -0.901654
H 1.572730 -1.859320 0.901654
C 2.834661 -1.798360 0.000000
H 2.462542 -2.315646 -0.901654
H 2.462542 -2.315646 0.901654
O 4.342161 -1.798360 0.000000
C 4.779511 -3.140390 0.000000
H 4.407391 -3.657680 -0.901654
H 4.407391 -3.657680 0.901654
C 6.286961 -3.153280 0.000000
H 6.659081 -2.635997 0.901654
H 6.659081 -2.635997 -0.901654
O 6.712821 -4.499010 0.000000
C 8.124271 -4.511080 0.000000
H 8.496381 -3.993790 0.901654
H 8.496381 -3.993790 -0.901654
C 9.014081 -4.967410 0.000000
H 8.641962 -5.484696 -0.901654
H 8.641962 -5.484696 0.901654
O 10.521581 -4.967410 0.000000
C 10.958931 -6.309440 0.000000
H 10.586811 -6.826730 -0.901654
H 10.586811 -6.826730 0.901654
C 12.466381 -6.322330 0.000000
H 12.838501 -5.805047 0.901654
H 12.838501 -5.805047 -0.901654
O 12.892241 -7.668060 0.000000
C 14.303691 -7.680130 0.000000
H 14.675801 -7.162840 0.901654
H 14.675801 -7.162840 -0.901654
C 15.193502 -8.136460 0.000000
H 14.821383 -8.653746 -0.901654
H 14.821383 -8.653746 0.901654
O 16.701002 -8.136460 0.000000
C 17.138352 -9.478490 0.000000
H 16.766232 -9.995780 -0.901654
H 16.766232 -9.995780 0.901654
C 18.645802 -9.491380 0.000000
H 19.017922 -8.974097 0.901654
H 19.017922 -8.974097 -0.901654
O 19.071662 -10.837110 0.000000
C 20.483112 -10.849180 0.000000
H 20.855222 -10.331890 0.901654
H 20.855222 -10.331890 -0.901654
C 21.372923 -11.305510 0.000000
H 21.000804 -11.822796 -0.901654
H 21.000804 -11.822796 0.901654
O 22.880423 -11.305510 0.000000
C 23.317773 -12.647540 0.000000
H 22.945653 -13.164830 -0.901654
H 22.945653 -13.164830 0.901654
C 24.825223 -12.660430 0.000000
H 25.197343 -12.143147 0.901654
H 25.197343 -12.143147 -0.901654
O 25.251083 -14.006160 0.000000
C 26.662533 -14.018230 0.000000
H 27.034643 -13.500940 0.901654
H 27.034643 -13.500940 -0.901654
C 27.552343 -14.474559 0.000000
H 27.180224 -14.991845 -0.901654
H 27.180224 -14.991845 0.901654
O 29.059843 -14.474559 0.000000
C 29.497193 -15.816589 0.000000
H 29.125073 -16.333879 -0.901654
H 29.125073 -16.333879 0.901654
C 31.004643 -15.829479 0.000000
H 31.376763 -15.312196 0.901654
H 31.376763 -15.312196 -0.901654
O 31.430503 -17.175209 0.000000
C 32.841953 -17.187279 0.000000
H 33.214063 -16.669989 0.901654
H 33.214063 -16.669989 -0.901654
C 33.731764 -17.643609 0.000000
H 33.359645 -18.160895 -0.901654
H 33.359645 -18.160895 0.901654
O 35.239264 -17.643609 0.000000
C 35.676614 -18.985639 0.000000
H 35.304494 -19.502929 -0.901654
H 35.304494 -19.502929 0.901654
C 37.184064 -18.998529 0.000000
H 37.556184 -18.481246 0.901654
H 37.556184 -18.481246 -0.901654
O 37.609924 -20.344259 0.000000
C 39.021374 -20.356329 0.000000
H 39.393484 -19.839039 0.901654
H 39.393484 -19.839039 -0.901654
C 39.911185 -20.812659 0.000000
H 39.539066 -21.329945 -0.901654
H 39.539066 -21.329945 0.901654
O 41.418685 -20.812659 0.000000
C 41.856035 -22.154689 0.000000
H 41.483915 -22.671979 -0.901654
H 41.483915 -22.671979 0.901654
C 43.363485 -22.167579 0.000000
H 43.735605 -21.650296 0.901654
H 43.735605 -21.650296 -0.901654
O 43.789345 -23.513309 0.000000
C 45.200795 -23.525379 0.000000
H 45.572905 -23.008089 0.901654
H 45.572905 -23.008089 -0.901654
C 46.090605 -23.981709 0.000000
H 45.718486 -24.498995 -0.901654
H 45.718486 -24.498995 0.901654
O 47.598105 -23.981709 0.000000
C 48.035455 -25.323739 0.000000
H 47.663335 -25.841029 -0.901654
H 47.663335 -25.841029 0.901654
C 49.542905 -25.336629 0.000000
H 49.915025 -24.819346 0.901654
H 49.915025 -24.819346 -0.901654
O 49.968765 -26.682359 0.000000
C 51.380215 -26.694429 0.000000
H 51.752325 -26.177139 0.901654
H 51.752325 -26.177139 -0.901654
C 52.203279 -27.262378 0.000000
H 51.831160 -27.779664 -0.901654
H 51.831160 -27.779664 0.901654
O 53.710779 -27.262378 0.000000
C 54.148129 -28.604408 0.000000
H 53.776009 -29.121698 -0.901654
H 53.776009 -29.121698 0.901654
H 55.202849 -28.277918 0.000000