51
H30 C14 O7
C 0.000000 0.000000 0.000000
H -0.356660 1.008810 0.000000
H -0.372119 -0.517286 -0.901654
H -0.372119 -0.517286 0.901654
O 1.507500 0.000000 0.000000
C 1.944850 -1.342030 0.000000
H 1.572730 -1.859320 -0.901654
H 1.572730 -1.859320 0.901654
C 3.185618 -2.198213 0.000000
H 2.813499 -2.715499 -0.901654
H 2.813499 -2.715499 0.901654
O 4.693118 -2.198213 0.000000
C 5.130468 -3.540243 0.000000
H 4.758348 -4.057533 -0.901654
H 4.758348 -4.057533 0.901654
C 6.371237 -4.396427 0.000000
H 5.999118 -4.913713 -0.901654
H 5.999118 -4.913713 0.901654
O 7.878737 -4.396427 0.000000
C 8.316087 -5.738457 0.000000
H 7.943967 -6.255747 -0.901654
H 7.943967 -6.255747 0.901654
C 9.556855 -6.594640 0.000000
H 9.184736 -7.111926 -0.901654
H 9.184736 -7.111926 0.901654
O 11.064355 -6.594640 0.000000
C 11.501705 -7.936670 0.000000
H 11.129585 -8.453960 -0.901654
H 11.129585 -8.453960 0.901654
C 12.742473 -8.792854 0.000000
H 12.370354 -9.310140 -0.901654
H 12.370354 -9.310140 0.901654
O 14.249973 -8.792854 0.000000
C 14.687323 -10.134884 0.000000
H 14.315203 -10.652174 -0.901654
H 14.315203 -10.652174 0.901654
C 15.928092 -10.991067 0.000000
H 15.555973 -11.508353 -0.901654
H 15.555973 -11.508353 0.901654
O 17.435592 -10.991067 0.000000
C 17.872942 -12.333097 0.000000
H 17.500822 -12.850387 -0.901654
H 17.500822 -12.850387 0.901654
C 19.113710 -13.189281 0.000000
H 18.741591 -13.706567 -0.901654
H 18.741591 -13.706567 0.901654
O 20.621210 -13.189281 0.000000
C 21.058560 -14.531311 0.000000
H 20.686440 -15.048601 -0.901654
H 20.686440 -15.048601 0.901654
H 22.113280 -14.204821 0.000000